1a0t_ligand
 OpenBabel09252308383D

 45 46  0  0  1  0  0  0  0  0999 V2000
  -44.9520  -14.6450  -14.2580 C   0  0  1  0  0  0  0  0  0  0  0  0
  -43.9740  -15.8130  -14.4360 C   0  0  1  0  0  0  0  0  0  0  0  0
  -44.3250  -16.9490  -13.4760 C   0  0  2  0  0  0  0  0  0  0  0  0
  -44.2860  -16.4420  -12.0850 C   0  0  1  0  0  0  0  0  0  0  0  0
  -45.2770  -15.3040  -11.9210 C   0  0  1  0  0  0  0  0  0  0  0  0
  -45.2450  -14.7580  -10.5290 C   0  0  0  0  0  0  0  0  0  0  0  0
  -46.2730  -15.0610  -14.6480 O   0  0  0  0  0  0  0  0  0  0  0  0
  -43.9850  -16.2330  -15.8010 O   0  0  0  0  0  0  0  0  0  0  0  0
  -43.3750  -17.9870  -13.6420 O   0  0  0  0  0  0  0  0  0  0  0  0
  -44.6130  -17.5380  -11.1870 O   0  0  0  0  0  0  0  0  0  0  0  0
  -44.9180  -14.2440  -12.8600 O   0  0  0  0  0  0  0  0  0  0  0  0
  -46.1150  -15.5190   -9.6790 O   0  0  0  0  0  0  0  0  0  0  0  0
  -47.2710  -13.5190  -16.2880 C   0  0  0  0  0  0  0  0  0  0  0  0
  -47.2900  -14.0250  -14.8500 C   0  0  1  0  0  0  0  0  0  0  0  0
  -48.6560  -14.5810  -14.3610 C   0  0  2  0  0  0  0  0  0  0  0  0
  -48.6700  -14.1750  -12.9030 C   0  0  1  0  0  0  0  0  0  0  0  0
  -48.0640  -12.7740  -13.0260 C   0  0  1  0  0  0  0  0  0  0  0  0
  -47.5100  -12.1450  -11.7790 C   0  0  0  0  0  0  0  0  0  0  0  0
  -48.4900  -12.8180  -16.5360 O   0  0  0  0  0  0  0  0  0  0  0  0
  -47.0210  -12.9340  -14.0020 O   0  0  0  0  0  0  0  0  0  0  0  0
  -48.8650  -15.9510  -14.6060 O   0  0  0  0  0  0  0  0  0  0  0  0
  -50.0050  -14.1820  -12.3880 O   0  0  0  0  0  0  0  0  0  0  0  0
  -47.9020  -12.8310  -10.6210 O   0  0  0  0  0  0  0  0  0  0  0  0
  -44.6402  -13.7994  -14.8886 H   0  0  0  0  0  0  0  0  0  0  0  0
  -42.9602  -15.4626  -14.1923 H   0  0  0  0  0  0  0  0  0  0  0  0
  -45.3323  -17.3297  -13.7004 H   0  0  0  0  0  0  0  0  0  0  0  0
  -43.2750  -16.0734  -11.8571 H   0  0  0  0  0  0  0  0  0  0  0  0
  -46.2907  -15.6689  -12.1427 H   0  0  0  0  0  0  0  0  0  0  0  0
  -45.5760  -13.7091  -10.5422 H   0  0  0  0  0  0  0  0  0  0  0  0
  -44.2175  -14.8134  -10.1403 H   0  0  0  0  0  0  0  0  0  0  0  0
  -44.8511  -16.5518  -16.0261 H   0  0  0  0  0  0  0  0  0  0  0  0
  -43.4081  -18.3049  -14.5366 H   0  0  0  0  0  0  0  0  0  0  0  0
  -44.5830  -17.2298  -10.2889 H   0  0  0  0  0  0  0  0  0  0  0  0
  -45.8294  -16.4250   -9.6652 H   0  0  0  0  0  0  0  0  0  0  0  0
  -47.1845  -14.3697  -16.9799 H   0  0  0  0  0  0  0  0  0  0  0  0
  -46.4169  -12.8410  -16.4319 H   0  0  0  0  0  0  0  0  0  0  0  0
  -49.4632  -14.0473  -14.8840 H   0  0  0  0  0  0  0  0  0  0  0  0
  -48.0401  -14.8320  -12.2853 H   0  0  0  0  0  0  0  0  0  0  0  0
  -48.8381  -12.0959  -13.4145 H   0  0  0  0  0  0  0  0  0  0  0  0
  -47.8703  -11.1077  -11.7153 H   0  0  0  0  0  0  0  0  0  0  0  0
  -46.4116  -12.1487  -11.8382 H   0  0  0  0  0  0  0  0  0  0  0  0
  -48.4927  -12.4962  -17.4299 H   0  0  0  0  0  0  0  0  0  0  0  0
  -49.7128  -16.2073  -14.2623 H   0  0  0  0  0  0  0  0  0  0  0  0
  -50.3191  -15.0772  -12.3376 H   0  0  0  0  0  0  0  0  0  0  0  0
  -47.5896  -13.7271  -10.6641 H   0  0  0  0  0  0  0  0  0  0  0  0
  1  2  1  6  0  0  0
  1  7  1  0  0  0  0
  1 11  1  0  0  0  0
  1 24  1  0  0  0  0
  2  3  1  1  0  0  0
  2  8  1  0  0  0  0
  2 25  1  0  0  0  0
  3  4  1  1  0  0  0
  3  9  1  0  0  0  0
  3 26  1  0  0  0  0
  4  5  1  1  0  0  0
  4 10  1  0  0  0  0
  4 27  1  0  0  0  0
  5  6  1  0  0  0  0
  5 11  1  0  0  0  0
  5 28  1  6  0  0  0
  6 12  1  0  0  0  0
  6 29  1  0  0  0  0
  6 30  1  0  0  0  0
  7 14  1  0  0  0  0
  8 31  1  0  0  0  0
  9 32  1  0  0  0  0
 10 33  1  0  0  0  0
 12 34  1  0  0  0  0
 13 19  1  0  0  0  0
 13 35  1  0  0  0  0
 13 36  1  0  0  0  0
 14 13  1  0  0  0  0
 14 15  1  1  0  0  0
 14 20  1  0  0  0  0
 15 16  1  1  0  0  0
 15 21  1  0  0  0  0
 15 37  1  0  0  0  0
 16 17  1  1  0  0  0
 16 22  1  0  0  0  0
 16 38  1  0  0  0  0
 17 18  1  0  0  0  0
 17 20  1  0  0  0  0
 17 39  1  6  0  0  0
 18 23  1  0  0  0  0
 18 40  1  0  0  0  0
 18 41  1  0  0  0  0
 19 42  1  0  0  0  0
 21 43  1  0  0  0  0
 22 44  1  0  0  0  0
 23 45  1  0  0  0  0
M  END
$$$$
