1a1b_ligand
 OpenBabel09252308373D

 82 82  0  0  1  0  0  0  0  0999 V2000
   43.8651  -10.0472   36.6279 H   0  0  0  0  0  0  0  0  0  0  0  0
   45.5912   -9.5533   36.6856 H   0  0  0  0  0  0  0  0  0  0  0  0
   44.4502   -8.7040   35.5886 H   0  0  0  0  0  0  0  0  0  0  0  0
   42.5451   -9.1894   38.0734 H   0  0  0  0  0  0  0  0  0  0  0  0
   43.1296   -6.5773   39.3352 H   0  0  0  0  0  0  0  0  0  0  0  0
   40.7364   -6.8995   40.1725 H   0  0  0  0  0  0  0  0  0  0  0  0
   40.6580   -8.3735   39.1488 H   0  0  0  0  0  0  0  0  0  0  0  0
   40.1127   -8.1894   36.9151 H   0  0  0  0  0  0  0  0  0  0  0  0
   41.4384   -4.7040   38.9586 H   0  0  0  0  0  0  0  0  0  0  0  0
   39.5697   -6.8313   34.9395 H   0  0  0  0  0  0  0  0  0  0  0  0
   40.9174   -3.3216   36.9851 H   0  0  0  0  0  0  0  0  0  0  0  0
   43.1670   -6.3738   41.5538 H   0  0  0  0  0  0  0  0  0  0  0  0
   44.2195   -8.6623   42.9892 H   0  0  0  0  0  0  0  0  0  0  0  0
   44.2281   -7.1164   44.8937 H   0  0  0  0  0  0  0  0  0  0  0  0
   43.3249   -5.9213   43.9023 H   0  0  0  0  0  0  0  0  0  0  0  0
   45.6753   -5.3819   44.0353 H   0  0  0  0  0  0  0  0  0  0  0  0
   45.1805   -5.7813   42.3554 H   0  0  0  0  0  0  0  0  0  0  0  0
   43.4331  -10.2583   46.2790 H   0  0  0  0  0  0  0  0  0  0  0  0
   44.3730   -9.2471   45.1297 H   0  0  0  0  0  0  0  0  0  0  0  0
   43.7436  -10.6877   43.2521 H   0  0  0  0  0  0  0  0  0  0  0  0
   42.6093  -11.6167   44.2900 H   0  0  0  0  0  0  0  0  0  0  0  0
   44.3317  -12.6936   45.4350 H   0  0  0  0  0  0  0  0  0  0  0  0
   45.5299  -11.4130   45.0460 H   0  0  0  0  0  0  0  0  0  0  0  0
   45.9269  -13.4394   43.6983 H   0  0  0  0  0  0  0  0  0  0  0  0
   45.4506  -12.0474   42.6677 H   0  0  0  0  0  0  0  0  0  0  0  0
   44.3417  -14.1319   41.9302 H   0  0  0  0  0  0  0  0  0  0  0  0
   43.1397  -12.9397   42.5305 H   0  0  0  0  0  0  0  0  0  0  0  0
   43.6160  -14.3317   43.5611 H   0  0  0  0  0  0  0  0  0  0  0  0
   40.8324  -10.5049   45.7104 H   0  0  0  0  0  0  0  0  0  0  0  0
   40.1812   -8.9608   45.0636 H   0  0  0  0  0  0  0  0  0  0  0  0
   42.1990   -9.0149   47.3471 H   0  0  0  0  0  0  0  0  0  0  0  0
   40.4415   -9.2238   47.6540 H   0  0  0  0  0  0  0  0  0  0  0  0
   39.9586   -6.9738   46.9188 H   0  0  0  0  0  0  0  0  0  0  0  0
   41.6122   -6.7636   46.2496 H   0  0  0  0  0  0  0  0  0  0  0  0
   42.5321   -7.2527   48.5495 H   0  0  0  0  0  0  0  0  0  0  0  0
   40.8467   -7.2582   49.1710 H   0  0  0  0  0  0  0  0  0  0  0  0
   41.9123   -5.0452   49.4843 H   0  0  0  0  0  0  0  0  0  0  0  0
   44.2360   -8.1990   37.6730 C   0  0  0  0  0  0  0  0  0  0  0  0
   44.8900   -7.1680   37.7910 O   0  0  0  0  0  0  0  0  0  0  0  0
   44.5580   -9.1950   36.5670 C   0  0  0  0  0  0  0  0  0  0  0  0
   43.1070   -8.4040   38.3330 N   0  0  0  0  0  0  0  0  0  0  0  0
   42.6420   -7.5610   39.4030 C   0  0  2  0  0  0  0  0  0  0  0  0
   42.9860   -8.1930   40.7250 C   0  0  0  0  0  0  0  0  0  0  0  0
   43.0380   -9.4310   40.8380 O   0  0  0  0  0  0  0  0  0  0  0  0
   41.1280   -7.3860   39.2670 C   0  0  0  0  0  0  0  0  0  0  0  0
   40.8020   -6.5290   38.0580 C   0  0  0  0  0  0  0  0  0  0  0  0
   40.2830   -7.1190   36.9330 C   0  0  0  0  0  0  0  0  0  0  0  0
   41.0250   -5.1690   38.0710 C   0  0  0  0  0  0  0  0  0  0  0  0
   39.9770   -6.3570   35.8250 C   0  0  0  0  0  0  0  0  0  0  0  0
   40.7290   -4.3890   36.9680 C   0  0  0  0  0  0  0  0  0  0  0  0
   40.1880   -4.9880   35.8390 C   0  0  0  0  0  0  0  0  0  0  0  0
   39.7000   -4.1850   34.7380 O   0  0  0  0  0  0  0  0  0  0  0  0
   40.5630   -3.9720   33.4060 P   0  0  0  0  0  0  0  0  0  0  0  0
   40.4000   -5.2520   32.7070 O   0  0  0  0  0  0  0  0  0  0  0  0
   39.8760   -2.8040   32.8150 O   0  0  0  0  0  0  0  0  0  0  0  0
   41.9290   -3.6980   33.9550 O   0  0  0  0  0  0  0  0  0  0  0  0
   40.5322   -4.9488   48.3386 H   0  0  0  0  0  0  0  0  0  0  0  0
   43.2010   -7.3590   41.7220 N   0  0  0  0  0  0  0  0  0  0  0  0
   43.4870   -7.8450   43.0630 C   0  0  2  0  0  0  0  0  0  0  0  0
   42.2290   -8.3700   43.7890 C   0  0  0  0  0  0  0  0  0  0  0  0
   41.1100   -7.9850   43.4110 O   0  0  0  0  0  0  0  0  0  0  0  0
   44.0590   -6.7400   43.8740 C   0  0  0  0  0  0  0  0  0  0  0  0
   45.3490   -6.1890   43.3630 C   0  0  0  0  0  0  0  0  0  0  0  0
   46.4500   -7.2250   43.2850 C   0  0  0  0  0  0  0  0  0  0  0  0
   46.6540   -7.9680   44.2480 O   0  0  0  0  0  0  0  0  0  0  0  0
   47.1120   -7.2700   42.2500 O   0  0  0  0  0  0  0  0  0  0  0  0
   42.2176   -4.9433   47.7171 H   0  0  0  0  0  0  0  0  0  0  0  0
   42.2650   -9.2250   44.8290 N   0  0  0  0  0  0  0  0  0  0  0  0
   43.4990   -9.9060   45.2390 C   0  0  0  0  0  0  0  0  0  0  0  0
   43.5630  -11.0690   44.2680 C   0  0  0  0  0  0  0  0  0  0  0  0
   44.6800  -11.9950   44.6600 C   0  0  0  0  0  0  0  0  0  0  0  0
   45.1020  -12.7650   43.4250 C   0  0  0  0  0  0  0  0  0  0  0  0
   43.9700  -13.6010   42.8190 C   0  0  0  0  0  0  0  0  0  0  0  0
   41.0240   -9.4280   45.5940 C   0  0  0  0  0  0  0  0  0  0  0  0
   41.1890   -8.7770   46.9820 C   0  0  0  0  0  0  0  0  0  0  0  0
   41.0170   -7.2490   47.0370 C   0  0  0  0  0  0  0  0  0  0  0  0
   41.5180   -6.8540   48.3990 C   0  0  0  0  0  0  0  0  0  0  0  0
   41.5470   -5.3450   48.4910 C   0  0  0  0  0  0  0  0  0  0  0  0
   40.8900   -5.9431   33.1795 H   0  0  0  0  0  0  0  0  0  0  0  0
   40.0517   -2.0179   33.3555 H   0  0  0  0  0  0  0  0  0  0  0  0
   41.9331   -2.8337   34.3952 H   0  0  0  0  0  0  0  0  0  0  0  0
   46.9191   -6.6842   41.5446 H   0  0  0  0  0  0  0  0  0  0  0  0
 38 39  2  0  0  0  0
 38 40  1  0  0  0  0
 40  1  1  0  0  0  0
 40  2  1  0  0  0  0
 40  3  1  0  0  0  0
 41  4  1  0  0  0  0
 41 38  1  0  0  0  0
 42  5  1  6  0  0  0
 42 41  1  0  0  0  0
 42 45  1  0  0  0  0
 43 42  1  0  0  0  0
 43 44  2  0  0  0  0
 45  6  1  0  0  0  0
 45  7  1  0  0  0  0
 45 46  1  0  0  0  0
 46 48  2  0  0  0  0
 46 47  1  0  0  0  0
 47  8  1  0  0  0  0
 47 49  2  0  0  0  0
 48  9  1  0  0  0  0
 48 50  1  0  0  0  0
 49 10  1  0  0  0  0
 49 51  1  0  0  0  0
 50 11  1  0  0  0  0
 50 51  2  0  0  0  0
 51 52  1  0  0  0  0
 52 53  1  0  0  0  0
 53 56  1  0  0  0  0
 53 55  1  0  0  0  0
 53 54  1  0  0  0  0
 54 79  1  0  0  0  0
 55 80  1  0  0  0  0
 56 81  1  0  0  0  0
 58 12  1  0  0  0  0
 58 43  1  0  0  0  0
 59 13  1  6  0  0  0
 59 62  1  0  0  0  0
 59 58  1  0  0  0  0
 60 59  1  0  0  0  0
 60 61  2  0  0  0  0
 60 68  1  0  0  0  0
 62 14  1  0  0  0  0
 62 15  1  0  0  0  0
 62 63  1  0  0  0  0
 63 16  1  0  0  0  0
 63 17  1  0  0  0  0
 63 64  1  0  0  0  0
 64 65  2  0  0  0  0
 64 66  1  0  0  0  0
 66 82  1  0  0  0  0
 68 74  1  0  0  0  0
 68 69  1  0  0  0  0
 69 18  1  0  0  0  0
 69 19  1  0  0  0  0
 69 70  1  0  0  0  0
 70 20  1  0  0  0  0
 70 21  1  0  0  0  0
 70 71  1  0  0  0  0
 71 22  1  0  0  0  0
 71 23  1  0  0  0  0
 71 72  1  0  0  0  0
 72 24  1  0  0  0  0
 72 25  1  0  0  0  0
 72 73  1  0  0  0  0
 73 26  1  0  0  0  0
 73 27  1  0  0  0  0
 73 28  1  0  0  0  0
 74 29  1  0  0  0  0
 74 30  1  0  0  0  0
 74 75  1  0  0  0  0
 75 31  1  0  0  0  0
 75 32  1  0  0  0  0
 75 76  1  0  0  0  0
 76 33  1  0  0  0  0
 76 34  1  0  0  0  0
 76 77  1  0  0  0  0
 77 35  1  0  0  0  0
 77 36  1  0  0  0  0
 77 78  1  0  0  0  0
 78 37  1  0  0  0  0
 78 57  1  0  0  0  0
 78 67  1  0  0  0  0
M  END
$$$$
