1a4g_ligand
 OpenBabel09252308373D

 44 44  0  0  1  0  0  0  0  0999 V2000
   -2.2500   58.2420   -5.5910 C   0  0  0  0  0  0  0  0  0  0  0  0
   -3.1720   59.1980   -5.4520 O   0  0  0  0  0  0  0  0  0  0  0  0
   -1.3720   58.0410   -4.8130 O   0  0  0  0  0  0  0  0  0  0  0  0
   -2.3300   57.4010   -6.7980 C   0  0  0  0  0  0  0  0  0  0  0  0
   -1.4680   56.3850   -6.9670 C   0  0  0  0  0  0  0  0  0  0  0  0
   -1.5020   55.5410   -8.2050 C   0  0  1  0  0  0  0  0  0  0  0  0
   -2.2900   56.1690   -9.2970 C   0  0  1  0  0  0  0  0  0  0  0  0
   -2.6540   55.1780  -10.2990 N   0  0  0  0  0  0  0  0  0  0  0  0
   -2.1140   55.1230  -11.5200 C   0  0  0  0  0  0  0  0  0  0  0  0
   -1.3800   55.9770  -11.9750 O   0  0  0  0  0  0  0  0  0  0  0  0
   -2.4680   53.8830  -12.3160 C   0  0  0  0  0  0  0  0  0  0  0  0
   -3.5940   56.7640   -8.6860 C   0  0  1  0  0  0  0  0  0  0  0  0
   -3.2710   57.7090   -7.6700 O   0  0  0  0  0  0  0  0  0  0  0  0
   -4.6460   57.3120   -9.6380 C   0  0  2  0  0  0  0  0  0  0  0  0
   -3.8180   57.8920  -10.0820 O   0  0  0  0  0  0  0  0  0  0  0  0
   -5.8270   57.8570   -9.0220 C   0  0  2  0  0  0  0  0  0  0  0  0
   -6.4010   56.6980   -8.4110 O   0  0  0  0  0  0  0  0  0  0  0  0
   -6.8360   58.4830   -9.9830 C   0  0  0  0  0  0  0  0  0  0  0  0
   -7.4390   57.4730  -10.7910 O   0  0  0  0  0  0  0  0  0  0  0  0
   -0.1890   55.1810   -8.6950 N   0  0  0  0  0  0  0  0  0  0  0  0
    0.0430   54.0300   -9.3200 C   0  0  0  0  0  0  0  0  0  0  0  0
   -0.8960   53.0810   -9.4020 N   0  0  0  0  0  0  0  0  0  0  0  0
    1.2160   53.8670   -9.9260 N   0  0  0  0  0  0  0  0  0  0  0  0
   -0.7330   56.1712   -6.1925 H   0  0  0  0  0  0  0  0  0  0  0  0
   -2.0115   54.6053   -7.9315 H   0  0  0  0  0  0  0  0  0  0  0  0
   -1.6974   56.9674   -9.7674 H   0  0  0  0  0  0  0  0  0  0  0  0
   -3.3482   54.4992  -10.0598 H   0  0  0  0  0  0  0  0  0  0  0  0
   -1.9801   53.9279  -13.3009 H   0  0  0  0  0  0  0  0  0  0  0  0
   -3.5587   53.8317  -12.4492 H   0  0  0  0  0  0  0  0  0  0  0  0
   -2.1221   52.9894  -11.7759 H   0  0  0  0  0  0  0  0  0  0  0  0
   -4.0845   55.9192   -8.1803 H   0  0  0  0  0  0  0  0  0  0  0  0
   -5.0137   56.5585  -10.3500 H   0  0  0  0  0  0  0  0  0  0  0  0
   -3.4295   58.4476   -9.4165 H   0  0  0  0  0  0  0  0  0  0  0  0
   -5.5475   58.6083   -8.2688 H   0  0  0  0  0  0  0  0  0  0  0  0
   -6.6302   56.0674   -9.0836 H   0  0  0  0  0  0  0  0  0  0  0  0
   -6.3200   59.2067  -10.6310 H   0  0  0  0  0  0  0  0  0  0  0  0
   -7.6162   58.9997   -9.4049 H   0  0  0  0  0  0  0  0  0  0  0  0
   -7.8866   56.8480  -10.2330 H   0  0  0  0  0  0  0  0  0  0  0  0
    0.5920   55.8379   -8.5552 H   0  0  0  0  0  0  0  0  0  0  0  0
   -0.6938   52.1973   -9.8911 H   0  0  0  0  0  0  0  0  0  0  0  0
   -1.8213   53.2339   -8.9761 H   0  0  0  0  0  0  0  0  0  0  0  0
    1.9361   54.6005   -9.8601 H   0  0  0  0  0  0  0  0  0  0  0  0
    1.4041   53.0073  -10.4611 H   0  0  0  0  0  0  0  0  0  0  0  0
   -3.8384   59.3042   -6.1020 H   0  0  0  0  0  0  0  0  0  0  0  0
  1  3  2  0  0  0  0
  1  2  1  0  0  0  0
  2 44  1  0  0  0  0
  4  1  1  0  0  0  0
  4 13  1  0  0  0  0
  4  5  2  0  0  0  0
  5  6  1  0  0  0  0
  5 24  1  0  0  0  0
  6 20  1  0  0  0  0
  6  7  1  6  0  0  0
  6 25  1  0  0  0  0
  7 12  1  1  0  0  0
  7  8  1  0  0  0  0
  7 26  1  0  0  0  0
  8  9  1  0  0  0  0
  8 27  1  0  0  0  0
  9 11  1  0  0  0  0
  9 10  2  0  0  0  0
 11 28  1  0  0  0  0
 11 29  1  0  0  0  0
 11 30  1  0  0  0  0
 12 14  1  0  0  0  0
 12 13  1  0  0  0  0
 12 31  1  1  0  0  0
 14 16  1  0  0  0  0
 14 15  1  0  0  0  0
 14 32  1  6  0  0  0
 15 33  1  0  0  0  0
 16 18  1  0  0  0  0
 16 17  1  0  0  0  0
 16 34  1  1  0  0  0
 17 35  1  0  0  0  0
 18 19  1  0  0  0  0
 18 36  1  0  0  0  0
 18 37  1  0  0  0  0
 19 38  1  0  0  0  0
 20 21  1  0  0  0  0
 20 39  1  0  0  0  0
 21 23  1  0  0  0  0
 21 22  1  0  0  0  0
 22 40  1  0  0  0  0
 22 41  1  0  0  0  0
 23 42  1  0  0  0  0
 23 43  1  0  0  0  0
M  END
$$$$
