1a4m_ligand
 OpenBabel09252308373D

 31 33  0  0  1  0  0  0  0  0999 V2000
   42.5180   21.8840   54.0210 N   0  0  0  0  0  0  0  0  0  0  0  0
   43.5210   21.4580   53.2580 C   0  0  0  0  0  0  0  0  0  0  0  0
   43.3100   20.9690   52.0350 N   0  0  0  0  0  0  0  0  0  0  0  0
   42.0220   20.8840   51.5120 C   0  0  0  0  0  0  0  0  0  0  0  0
   40.9670   21.3010   52.2440 C   0  0  0  0  0  0  0  0  0  0  0  0
   41.2000   21.8320   53.5610 C   0  0  0  0  0  0  0  0  0  0  0  0
   40.5460   23.2950   53.6830 O   0  0  0  0  0  0  0  0  0  0  0  0
   39.8430   21.1100   51.5070 N   0  0  0  0  0  0  0  0  0  0  0  0
   40.1960   20.5780   50.3350 C   0  0  0  0  0  0  0  0  0  0  0  0
   41.5390   20.4300   50.3160 N   0  0  0  0  0  0  0  0  0  0  0  0
   42.3350   19.8660   49.2340 C   0  0  1  0  0  0  0  0  0  0  0  0
   41.6760   18.5710   48.6820 C   0  0  2  0  0  0  0  0  0  0  0  0
   42.6470   17.5160   48.5850 O   0  0  0  0  0  0  0  0  0  0  0  0
   41.0570   18.8410   47.2770 C   0  0  2  0  0  0  0  0  0  0  0  0
   41.2670   17.7040   46.4350 O   0  0  0  0  0  0  0  0  0  0  0  0
   42.1750   19.9560   47.0240 C   0  0  2  0  0  0  0  0  0  0  0  0
   42.3620   20.7420   48.1390 O   0  0  0  0  0  0  0  0  0  0  0  0
   41.8650   20.8400   45.7960 C   0  0  0  0  0  0  0  0  0  0  0  0
   40.6550   21.5940   45.9760 O   0  0  0  0  0  0  0  0  0  0  0  0
   42.7096   22.2453   54.9336 H   0  0  0  0  0  0  0  0  0  0  0  0
   44.5391   21.5097   53.6411 H   0  0  0  0  0  0  0  0  0  0  0  0
   39.5154   20.3083   49.5288 H   0  0  0  0  0  0  0  0  0  0  0  0
   43.3537   19.6607   49.5948 H   0  0  0  0  0  0  0  0  0  0  0  0
   40.8773   18.2583   49.3707 H   0  0  0  0  0  0  0  0  0  0  0  0
   42.2292   16.7327   48.2466 H   0  0  0  0  0  0  0  0  0  0  0  0
   40.0128   19.1864   47.2574 H   0  0  0  0  0  0  0  0  0  0  0  0
   40.8890   17.8708   45.5795 H   0  0  0  0  0  0  0  0  0  0  0  0
   43.1200   19.4303   46.8225 H   0  0  0  0  0  0  0  0  0  0  0  0
   41.7552   20.1955   44.9114 H   0  0  0  0  0  0  0  0  0  0  0  0
   42.7003   21.5384   45.6395 H   0  0  0  0  0  0  0  0  0  0  0  0
   40.7443   22.1573   46.7358 H   0  0  0  0  0  0  0  0  0  0  0  0
  1  2  1  0  0  0  0
  1  6  1  0  0  0  0
  1 20  1  0  0  0  0
  2  3  2  0  0  0  0
  2 21  1  0  0  0  0
  3  4  1  0  0  0  0
  4  5  2  0  0  0  0
  4 10  1  0  0  0  0
  5  6  1  0  0  0  0
  5  8  1  0  0  0  0
  6  7  2  0  0  0  0
  8  9  2  0  0  0  0
  9 10  1  0  0  0  0
  9 22  1  0  0  0  0
 10 11  1  0  0  0  0
 11 12  1  6  0  0  0
 11 17  1  0  0  0  0
 11 23  1  0  0  0  0
 12 13  1  0  0  0  0
 12 14  1  6  0  0  0
 12 24  1  0  0  0  0
 13 25  1  0  0  0  0
 14 15  1  0  0  0  0
 14 16  1  6  0  0  0
 14 26  1  0  0  0  0
 15 27  1  0  0  0  0
 16 17  1  0  0  0  0
 16 18  1  0  0  0  0
 16 28  1  6  0  0  0
 18 19  1  0  0  0  0
 18 29  1  0  0  0  0
 18 30  1  0  0  0  0
 19 31  1  0  0  0  0
M  END
$$$$
